$-----------------------------------------------------------------------------
$
$ Example provided by Dr. Nils Karajan (DYNAmore Corporation)
$
$ Date: Wed Apr 11 10:42:53 CET 2018
$
$ E-Mail: info@dynamore.de
$ Web: http://www.dynamore.de
$
$ Copyright, 2018 DYNAmore Corp.
$ Copying for non-commercial usage allowed if
$ copy bears this notice completely.
$
$-------------------------------------------------------------------------------
$
$ Run main file as is. It was tested with LS-DYNA R9.2 with double precision.
$ 
$-------------------------------------------------------------------------------
$# Units: kg / mm / ms / kN / GPa / kN-mm
$-------------------------------------------------------------------------------
$
*KEYWORD
*TITLE
$#                                                                         title
Bolted Connection Type a
$
$---+----1----+----2----+----3----+----4----+----5----+----6----+----7----+----8
$
$ DATABASE cards
$
$---+----1----+----2----+----3----+----4----+----5----+----6----+----7----+----8
$
*DATABASE_HISTORY_BEAM
$#     id1       id2       id3       id4       id5       id6       id7       id8
   1000000                                                                      
$
*DATABASE_HISTORY_NODE
$#     id1       id2       id3       id4       id5       id6       id7       id8
         1         2                                                            
$
$
$---+----1----+----2----+----3----+----4----+----5----+----6----+----7----+----8
$
$ SET cards for contact treatment
$
$---+----1----+----2----+----3----+----4----+----5----+----6----+----7----+----8
$
$--- AUTOMATIC SINGLE SURFACE
$
*SET_PART_LIST
$#     sid       da1       da2       da3       da4    solver      
     10001                                                  
$#    pid1      pid2      pid3      pid4      pid5      pid6      pid7      pid8
        10        20
$
$--- AUTOMATIC GENERAL
$
*SET_PART_LIST
$#     sid       da1       da2       da3       da4    solver      
     10013                                                  
$#    pid1      pid2      pid3      pid4      pid5      pid6      pid7      pid8
       100                                                            
$
$--- USED ONLY IN IMPLICIT
$
*SET_PART_LIST
$#     sid       da1       da2       da3       da4    solver      
     10100                                                  
$#    pid1      pid2      pid3      pid4      pid5      pid6      pid7      pid8
       100                                                    
$
$
$---+----1----+----2----+----3----+----4----+----5----+----6----+----7----+----8
$
$ INITIAL cards
$
$---+----1----+----2----+----3----+----4----+----5----+----6----+----7----+----8
$
*INITIAL_AXIAL_FORCE_BEAM
$#    bsid      lcid     scale     kbend     
       100       100                   0
$
*SET_BEAM
$#     sid   
       100
$#      k1        k2        k3        k4        k5        k6        k7        k8
   1000000                                                                      
$
*DEFINE_CURVE
$#    lcid      sidr       sfa       sfo      offa      offo    dattyp     lcint
       100           &dtPreStr &bltForce                                        
$#                a1                  o1  
                 0.0                 0.0
                 1.0                 1.0
$
$
$---+----1----+----2----+----3----+----4----+----5----+----6----+----7----+----8
$
$ BOUNDARY cards
$
$---+----1----+----2----+----3----+----4----+----5----+----6----+----7----+----8
$
*BOUNDARY_PRESCRIBED_MOTION_SET
$#    nsid       dof       vad      lcid        sf       vid     death     birth
        20         1         2        11                                        
*SET_NODE_LIST_TITLE
End of Sheet 2
$#     sid       da1       da2       da3       da4    solver      
        20                                        
$#    nid1      nid2      nid3      nid4      nid5      nid6      nid7      nid8
    200034    200039    200044    200050    200057    200065    200074    200206
    200211    200216    200222    200229    200237    200246    200435    200613
    200614                                                                      
*DEFINE_CURVE
$#    lcid      sidr       sfa       sfo      offa      offo    dattyp     lcint
        11                                                                      
$#                a1                  o1  
                 0.0                 0.0
              &tLoad                 0.0
               &tEnd              &distX
             &tInfty              &distX
$
$---
$
*BOUNDARY_SPC_SET
$#    nsid       cid      dofx      dofy      dofz     dofrx     dofry     dofrz
        10                   1         1         1         1         1         1
*SET_NODE_LIST_TITLE
End of Sheet 1
$#     sid       da1       da2       da3       da4    solver      
        10                                        
$#    nid1      nid2      nid3      nid4      nid5      nid6      nid7      nid8
    100062    100093    100133    100139    100144    100148    100151    100153
    100154    100238    100244    100249    100253    100256    100258    100468
    100479    100487    100538    100579    100594    100623    100634    100726
    100771    100772    100834    100844    100875    100885    100895    100958
    100968    100986    100991    101006    101042    101045    101090    101106
    101118    101146    101150    101170    101246                              
$
$
$---+----1----+----2----+----3----+----4----+----5----+----6----+----7----+----8
$
$ PART / SECTION / MATERIALS
$
$---+----1----+----2----+----3----+----4----+----5----+----6----+----7----+----8
$
$--- Plates
$
*PART
$#                                                                         title
Plate 1
$#     pid     secid       mid     eosid      hgid      grav    adpopt      tmid
        10        10        10                                                  
*SECTION_SOLID
$#   secid    elform       aet   
        10        -1          
*MAT_PLASTIC_KINEMATIC
$#     mid        ro         e        pr      sigy      etan      beta
        10   7.85e-6     210.0       0.3      0.18     0.672         
$#     src       srp        fs        vp
                                     1.0
$
*PART
$#                                                                         title
Plate 2
$#     pid     secid       mid     eosid      hgid      grav    adpopt      tmid
        20        20        20                                                  
*SECTION_SHELL
$#   secid    elform      shrf       nip     propt   qr/irid     icomp     setyp
        20        16       1.0         5       3.0                              
$#      t1        t2        t3        t4      nloc     marea      idof    edgset
       1.0
*MAT_PLASTIC_KINEMATIC
$#     mid        ro         e        pr      sigy      etan      beta
        20   7.85e-6     210.0       0.3      0.18     0.672         
$#     src       srp        fs        vp
                                     1.0
$
$--- Bolt
$
*PART_CONTACT
$#                                                                         title
Bolt
$#     pid     secid       mid     eosid      hgid      grav    adpopt      tmid
       100       100       100                                                  
$#      fs        fd        dc        vc      optt       sft       ssf   
                                              10.0                    
*SECTION_BEAM
$#   secid    elform      shrf   qr/irid       cst     scoor       nsm   
       100         9       1.0         2         1                    
$#     ts1       ts2       tt1       tt2     print     
      10.0      10.0                              
$
*MAT_SPOTWELD
$#     mid        ro         e        pr      sigy        eh        dt     tfail
       100   7.85e-6     210.0       0.3      0.64       9.5                    
$#   efail       nrr       nrs       nrt       mrr       mss       mtt        nf
                                                                                
$
$
$---+----1----+----2----+----3----+----4----+----5----+----6----+----7----+----8
$
$ CONSTRAINED cards (bolt head and nut)
$
$---+----1----+----2----+----3----+----4----+----5----+----6----+----7----+----8
$
*CONSTRAINED_NODAL_RIGID_BODY
$#     pid       cid      nsid     pnode      iprt    drflag    rrflag      
       110                 110         1                              
*SET_NODE_LIST_TITLE
CNRB Sheet 1
$#     sid       da1       da2       da3       da4    solver      
       110                                        MECH
$#    nid1      nid2      nid3      nid4      nid5      nid6      nid7      nid8
         1    100029    100532    100888    100024    100753    100026    100993
    100032    101236    100019    100005    100663    100976    100000    100004
    100503    100003    101269    100031    100740    100506    100010    100021
    101167    100901    100022    100016    100804    101078    100013    100009
    100545    101292    100453    101164    100736    100463    100725    101136
    101058    100763    100980    100873    100678    100520    101065    101229
    100985                                                                      
*CONSTRAINED_NODAL_RIGID_BODY
$#     pid       cid      nsid     pnode      iprt    drflag    rrflag      
       120                 120                                        
*SET_NODE_LIST_TITLE
CNRB Sheet 2
$#     sid       da1       da2       da3       da4    solver      
       120                                        MECH
$#    nid1      nid2      nid3      nid4      nid5      nid6      nid7      nid8
         2    200013    200011    200009    200146    200007    200002    200003
    200005    200147    200023    200025    200026    200028    200314    200016
    200020    200022    200018    200313    200015                              
$
$
$--+---1---+---2---+---3---+---4---+---5---+---6---+---7---+---8---+---9---+--10
$
$ ELEMENT cards
$
$--+---1---+---2---+---3---+---4---+---5---+---6---+---7---+---8---+---9---+--10
$
*ELEMENT_SOLID
$#   eid     pid      n1      n2      n3      n4      n5      n6      n7      n8
  100000      10  100024  100029  100012  100011  100888  100532  101129  100859
  100001      10  100026  100024  100011  100014  100753  100888  100859  101194
  100002      10  100032  100026  100014  100015  100993  100753  101194  101151
  100003      10  100015  100002  100019  100032  101151  100635  101236  100993
  100004      10  100306  100309  100308  100307  100492  101259  100999  100730
  100005      10  100310  100311  100306  100307  100459  101226  100492  100730
  100006      10  100309  100306  100313  100312  101259  100492  101063  100857
  100007      10  100311  100310  100315  100314  101226  100459  100752  101096
  100008      10  100311  100316  100313  100306  101226  100825  101063  100492
  100009      10  100313  100318  100317  100312  101063  100567  101163  100857
  100010      10  100319  100314  100315  100320  101121  101096  100752  100694
  100011      10  100316  100311  100314  100321  100825  101226  101096  100601
  100012      10  100318  100313  100316  100322  100567  101063  100825  101200
  100013      10  100318  100324  100323  100317  100567  100931  100669  101163
  100014      10  100025  100319  100320  100023  100457  101121  100694  101224
  100015      10  100314  100319  100325  100321  101096  101121  100971  100601
  100016      10  100326  100322  100316  100321  100699  101200  100825  100601
  100017      10  100324  100318  100322  100327  100931  100567  101200  101309
  100018      10  100324  100329  100328  100323  100931  101035  100823  100669
  100019      10  100027  100325  100319  100025  100449  100971  101121  100457
$ ... 764 like lines cut
*ELEMENT_SHELL
$#   eid     pid      n1      n2      n3      n4      n5      n6      n7      n8
  200000      20  200004  200002  200003  200006                                
  200001      20  200000  200007  200002  200004                                
  200002      20  200006  200003  200005  200032                                
  200003      20  200007  200000  200436  200146                                
  200004      20  200032  200005  200147  200139                                
  200005      20  200008  200009  200146  200436                                
  200006      20  200010  200011  200009  200008                                
  200007      20  200012  200013  200011  200010                                
  200008      20  200014  200015  200013  200012                                
  200009      20  200015  200014  200274  200313                                
  200010      20  200030  200018  200313  200274                                
  200011      20  200016  200019  200561  200314                                
  200012      20  200018  200030  200017  200022                                
  200013      20  200020  200021  200019  200016                                
  200014      20  200022  200017  200021  200020                                
  200015      20  200023  200024  200139  200147                                
  200016      20  200025  200027  200024  200023                                
  200017      20  200026  200029  200027  200025                                
  200018      20  200028  200031  200029  200026                                
  200019      20  200031  200028  200314  200561                                
$ ... 536 like lines cut
*ELEMENT_BEAM
$#   eid     pid      n1      n2      n3     rt1     rr1     rt2     rr2   local
 1000000     100       1       2       3                                       
$
$
$--+---1---+---2---+---3---+---4---+---5---+---6---+---7---+---8---+---9---+--10
$
$ NODE cards
$
$--+---1---+---2---+---3---+---4---+---5---+---6---+---7---+---8---+---9---+--10
$
*NODE
$#   nid               x               y               z      tc      rc  
       1    2.058975e-07            -2.2                                
       2                                                                
       3            -1.0   -9.358979e-08                                
  100000        5.399644            -3.7   -3.349418e-05                
  100001       -7.771508       -3.700001        3.241283                
  100002       -8.400816       -3.700001    9.051177e-04                
  100003        2.088639            -3.7         5.08325                
  100004        3.847966            -3.7        3.883466                
  100005        5.001602            -3.7        2.093082                
  100006       -3.239056            -3.7         7.85582                
  100007       -0.001198            -3.7        8.501451                
  100008       -5.969051       -3.700001        6.004994                
  100009        5.001563            -3.7       -2.093112                
  100010       -5.001482       -3.700001        2.093382                
  100011       -3.237454            -3.7       -7.853808                
  100012   -3.804212e-05            -3.7       -8.501316                
  100013        2.088659            -3.7       -5.083226                
  100014       -5.969726       -3.700001       -6.005172                
  100015       -7.773262       -3.700001       -3.240982                
  100016        3.847974            -3.7       -3.883484                
$ ... 1926 like lines cut
*END
